; Filename: EXNET_READY_TO_RUN.inp
; WNTR: 1.4.0
; Created: 2026-01-27 21:23:14
[TITLE]

[JUNCTIONS]
;ID                      Elevation       Demand Pattern                 
 1003                            7097           4.022 1                          ;
 1010                            6965           4.022 1                          ;
 1012                            7060           4.022 1                          ;
 1020                            7130           4.022 1                          ;
 1021                            6965           4.022 1                          ;
 1022                            7030           4.022 1                          ;
 1023                            7125           4.022 1                          ;
 1024                            7025           4.022 1                          ;
 1025                            7005           4.022 1                          ;
 1026                            6965           4.022 1                          ;
 1027                            6980           4.022 1                          ;
 1028                            7020           4.022 1                          ;
 1029                            7005           4.022 1                          ;
 1030                            7020           4.022 1                          ;
 1031                            7020           4.022 1                          ;
 1032                            7000           4.022 1                          ;
 1033                            6990           4.022 1                          ;
 1034                            6977           4.022 1                          ;
 1035                            6965           4.022 1                          ;
 1036                            6996           4.022 1                          ;
 1037                            6985           4.022 1                          ;
 1038                            7040           4.022 1                          ;
 1040                            7080           4.022 1                          ;
 1041                            7020           4.022 1                          ;
 1042                            6995           4.022 1                          ;
 1043                            7040           4.022 1                          ;
 1044                            7030           4.022 1                          ;
 1046                            7010           4.022 1                          ;
 1047                            7005           4.022 1                          ;
 1048                            7010           4.022 1                          ;
 1049                            7025           4.022 1                          ;
 1051                            7110           4.022 1                          ;
 1052                            7120           4.022 1                          ;
 1053                            7100           4.022 1                          ;
 1055                            7077           4.022 1                          ;
 1056                            7050           4.022 1                          ;
 1059                            7030           4.022 1                          ;
 1060                            7050           4.022 1                          ;
 1061                            7010           4.022 1                          ;
 1062                            7050           4.022 1                          ;
 1064                            7045           4.022 1                          ;
 1065                            7070           4.022 1                          ;
 1066                            7082           4.022 1                          ;
 1067                            7125           4.022 1                          ;
 1068                            7130           4.022 1                          ;
 1070                            7095           4.022 1                          ;
 1071                            7120           4.022 1                          ;
 1074                            7050           4.022 1                          ;
 1076                            7060           4.022 1                          ;
 1077                            7100           4.022 1                          ;
 1078                            7075           4.022 1                          ;
 1079                            7126           4.022 1                          ;
 1080                            7115           4.022 1                          ;
 1086                            7135           4.022 1                          ;
 1087                            7125           4.022 1                          ;
 1088                            7125           4.022 1                          ;
 1089                            7162           4.022 1                          ;
 1090                            7157           4.022 1                          ;
 1092                            6980           4.022 1                          ;
 1093                            7149           4.022 1                          ;
 1095                            7139           4.022 1                          ;
 1096                            7129           4.022 1                          ;
 1097                            7003           4.022 1                          ;
 1098                            7037           4.022 1                          ;
 1099                            7100           4.022 1                          ;
 1100                            7170           4.022 1                          ;
 1101                            7105           4.022 1                          ;
 1102                            7063           4.022 1                          ;
 1103                            7030           4.022 1                          ;
 1104                            7175           4.022 1                          ;
 1105                            7055           4.022 1                          ;
 1106                            7000           4.022 1                          ;
 1107                            6998           4.022 1                          ;
 1108                            7000           4.022 1                          ;
 1110                            6985           4.022 1                          ;
 1111                            7030           4.022 1                          ;
 1114                            7060           4.022 1                          ;
 1115                            7050           4.022 1                          ;
 1117                            7050           4.022 1                          ;
 1118                            7040           4.022 1                          ;
 1120                            7020           4.022 1                          ;
 1121                            7037           4.022 1                          ;
 1122                            7040           4.022 1                          ;
 1123                            7035           4.022 1                          ;
 1124                            7030           4.022 1                          ;
 1125                            7035           4.022 1                          ;
 1126                            7055           4.022 1                          ;
 1127                            7065           4.022 1                          ;
 1128                            7040           4.022 1                          ;
 1129                            7050           4.022 1                          ;
 1130                            7050           4.022 1                          ;
 1131                            7057           4.022 1                          ;
 1133                            7077           4.022 1                          ;
 1135                            7015           4.022 1                          ;
 1136                            7055           4.022 1                          ;
 1137                            7065           4.022 1                          ;
 1138                            7082           4.022 1                          ;
 1139                            7020           4.022 1                          ;
 1141                            7112           4.022 1                          ;
 1142                            7065           4.022 1                          ;
 1144                            7040           4.022 1                          ;
 1146                            7040           4.022 1                          ;
 1147                            7153           4.022 1                          ;
 1148                            7070           4.022 1                          ;
 1149                            7100           4.022 1                          ;
 1150                            7140           4.022 1                          ;
 1151                            7148           4.022 1                          ;
 1152                            7140           4.022 1                          ;
 1153                            7150           4.022 1                          ;
 1154                            7151           4.022 1                          ;
 1155                            7122           4.022 1                          ;
 1156                            7140           4.022 1                          ;
 1157                            7107           4.022 1                          ;
 1158                            7118           4.022 1                          ;
 1159                            7130           4.022 1                          ;
 1161                            7120           4.022 1                          ;
 1162                            7113           4.022 1                          ;
 1163                            7108           4.022 1                          ;
 1164                            7096           4.022 1                          ;
 1165                            7099           4.022 1                          ;
 1166                            7070           4.022 1                          ;
 1167                            7076           4.022 1                          ;
 1168                            7070           4.022 1                          ;
 1169                            7080           4.022 1                          ;
 1170                            7162           4.022 1                          ;
 1171                            7090           4.022 1                          ;
 1172                            7100           4.022 1                          ;
 1173                            7070           4.022 1                          ;
 1174                            7110           4.022 1                          ;
 1175                            7130           4.022 1                          ;
 1176                            7098           4.022 1                          ;
 1177                            7088           4.022 1                          ;
 1178                            7096           4.022 1                          ;
 1179                            7045           4.022 1                          ;
 6005                            7194           8.434 1                          ;
 6006                            7155           8.434 1                          ;
 6008                            7175           8.434 1                          ;
 6009                            7145           8.434 1                          ;
 6011                            7090           8.434 1                          ;
 6013                            7150           8.434 1                          ;
 6014                            7030           8.434 1                          ;
 6015                            6985           8.434 1                          ;
 6018                            6985           8.434 1                          ;
 6035                            6961           8.434 1                          ;
 6056                            6998           8.434 1                          ;
 6057                            7010           8.434 1                          ;
 6058                            7012           8.434 1                          ;
 6059                            7017           8.434 1                          ;
 6060                            7030           8.434 1                          ;
 6061                            7029           8.434 1                          ;
 6062                            7030           8.434 1                          ;
 6063                            7020           8.434 1                          ;
 6064                            7020           8.434 1                          ;
 6065                            7047           8.434 1                          ;
 6066                            7047           8.434 1                          ;
 6067                            7052           8.434 1                          ;
 6068                            7050           8.434 1                          ;
 6069                            7050           8.434 1                          ;
 6070                            7064           8.434 1                          ;
 6071                            7074           8.434 1                          ;
 6072                            7085           8.434 1                          ;
 6073                            7100           8.434 1                          ;
 6074                            7103           8.434 1                          ;
 6075                            7132           8.434 1                          ;
 6076                            7140           8.434 1                          ;
 6077                            7169           8.434 1                          ;
 6083                            7001           8.434 1                          ;
 6084                            7000           8.434 1                          ;
 6085                            7000           8.434 1                          ;
 6086                            7004           8.434 1                          ;
 6087                            7004           8.434 1                          ;
 6088                            7019           8.434 1                          ;
 6089                            7019           8.434 1                          ;
 6090                            7000           8.434 1                          ;
 6091                            7006           8.434 1                          ;
 6092                            7025           8.434 1                          ;
 6093                            7025           8.434 1                          ;
 6094                            7046           8.434 1                          ;
 6095                            7046           8.434 1                          ;
 6096                            7047           8.434 1                          ;
 6097                            7034           8.434 1                          ;
 6098                            7040           8.434 1                          ;
 6099                            7055           8.434 1                          ;
 6100                            7020           8.434 1                          ;
 6101                            7008           8.434 1                          ;
 6102                            7008           8.434 1                          ;
 6103                            7020           8.434 1                          ;
 6104                            7038           8.434 1                          ;
 6105                            7032           8.434 1                          ;
 6106                            7023           8.434 1                          ;
 6107                            7018           8.434 1                          ;
 6108                            7020           8.434 1                          ;
 6109                            7030           8.434 1                          ;
 6110                            7040           8.434 1                          ;
 6111                            7030           8.434 1                          ;
 6112                            7005           8.434 1                          ;
 6113                            7013           8.434 1                          ;
 6114                            7090           8.434 1                          ;
 6115                            7075           8.434 1                          ;
 6116                            7060           8.434 1                          ;
 6117                            7059           8.434 1                          ;
 6118                            7051           8.434 1                          ;
 6119                            7061           8.434 1                          ;
 6120                            7067           8.434 1                          ;
 6121                            7074           8.434 1                          ;
 6122                            7050           8.434 1                          ;
 6123                            7060           8.434 1                          ;
 6124                            7060           8.434 1                          ;
 6125                            7070           8.434 1                          ;
 6126                            7074           8.434 1                          ;
 6127                            7125           8.434 1                          ;
 6128                            7087           8.434 1                          ;
 6129                            7094           8.434 1                          ;
 6130                            7087           8.434 1                          ;
 6131                            7102           8.434 1                          ;
 6132                            7112           8.434 1                          ;
 6133                            7112           8.434 1                          ;
 6134                            7100           8.434 1                          ;
 6135                            7110           8.434 1                          ;
 6136                            7110           8.434 1                          ;
 6137                            7087           8.434 1                          ;
 6138                            7060           8.434 1                          ;
 6139                            7060           8.434 1                          ;
 6140                            7070           8.434 1                          ;
 6141                            7070           8.434 1                          ;
 6142                            7115           8.434 1                          ;
 6143                            7100           8.434 1                          ;
 6144                            7129           8.434 1                          ;
 6145                            7100           8.434 1                          ;
 6146                            7121           8.434 1                          ;
 6147                            7100           8.434 1                          ;
 6148                            7141           8.434 1                          ;
 6149                            7141           8.434 1                          ;
 6150                            7130           8.434 1                          ;
 6151                            7151           8.434 1                          ;
 6152                            7153           8.434 1                          ;
 6153                            7150           8.434 1                          ;
 6154                            7160           8.434 1                          ;
 6156                            7190           8.434 1                          ;
 6157                            7180           8.434 1                          ;
 6158                            7174           8.434 1                          ;
 6159                            7183           8.434 1                          ;
 6160                            7168           8.434 1                          ;
 6161                            7161           8.434 1                          ;
 6178                            7191           8.434 1                          ;
 6179                            7185           8.434 1                          ;
 6199                            7125           8.434 1                          ;
 6200                            7111           8.434 1                          ;
 6201                            7101           8.434 1                          ;
 6202                            7070           8.434 1                          ;
 6203                            7100           8.434 1                          ;
 6204                            7093           8.434 1                          ;
 6205                            7082           8.434 1                          ;
 6206                            7101           8.434 1                          ;
 6207                            7129           8.434 1                          ;
 6208                            7117           8.434 1                          ;
 6209                            7116           8.434 1                          ;
 6210                            7109           8.434 1                          ;
 6211                            7116           8.434 1                          ;
 6212                            7122           8.434 1                          ;
 6213                            7126           8.434 1                          ;
 6214                            7127           8.434 1                          ;
 6215                            7130           8.434 1                          ;
 6216                            7141           8.434 1                          ;
 6217                            7138           8.434 1                          ;
 6218                            7036           8.434 1                          ;
 6219                            7021           8.434 1                          ;
 6220                            7012           8.434 1                          ;
 6221                            7039           8.434 1                          ;
 6222                            7040           8.434 1                          ;
 6223                            7060           8.434 1                          ;
 6224                            7055           8.434 1                          ;
 6225                            7076           8.434 1                          ;
 6226                            7070           8.434 1                          ;
 6227                            7138           8.434 1                          ;
 6228                            7142           8.434 1                          ;
 6229                            7106           8.434 1                          ;
 6230                            7148           8.434 1                          ;
 6231                            7139           8.434 1                          ;
 6232                            7133           8.434 1                          ;
 6233                            7148           8.434 1                          ;
 6234                            7137           8.434 1                          ;
 6235                            7133           8.434 1                          ;
 6236                            7142           8.434 1                          ;
 6237                            7150           8.434 1                          ;
 6238                            7090           8.434 1                          ;
 6239                            7090           8.434 1                          ;
 6240                            7125           8.434 1                          ;
 6241                            7055           8.434 1                          ;
 6242                            7080           8.434 1                          ;
 6243                            7080           8.434 1                          ;
 6244                            7087           8.434 1                          ;
 6245                            7071           8.434 1                          ;
 6246                            7050           8.434 1                          ;
 6247                            7086           8.434 1                          ;
 6248                            7043           8.434 1                          ;
 6249                            7085           8.434 1                          ;
 6250                            7039           8.434 1                          ;
 6251                            7012           8.434 1                          ;
 6252                            7048           8.434 1                          ;
 6253                            7012           8.434 1                          ;
 6255                            6976           8.434 1                          ;
 6256                            6994           8.434 1                          ;
 6257                            7012           8.434 1                          ;
 6258                            6985           8.434 1                          ;
 6259                            6985           8.434 1                          ;
 6260                            6990           8.434 1                          ;
 6261                            6990           8.434 1                          ;
 6262                            6985           8.434 1                          ;
 6263                            7100           8.434 1                          ;
 6264                            7142           8.434 1                          ;
 9001                            7100               0 1                          ;
 9002                            7100               0 1                          ;
 9003                            7100               0 1                          ;
 9004                            7100               0 1                          ;
 9005                            7100               0 1                          ;
 9006                            7100               0 1                          ;
 9017                            7100               0 1                          ;
 9018                            7100               0 1                          ;
 9019                            7100               0 1                          ;
 9020                            7100               0 1                          ;
 9021                            7100               0 1                          ;
 9022                            7100               0 1                          ;
 11004                           7142           4.022 1                          ;
 11005                           7151           4.022 1                          ;
 11006                           7140           4.022 1                          ;
 11007                           7157           4.022 1                          ;
 11009                           7086           4.022 1                          ;
 11011                           7149           4.022 1                          ;
 11013                           7150           4.022 1                          ;
 11017                           7143           4.022 1                          ;
 11018                           7146           4.022 1                          ;
 11019                           6965           4.022 1                          ;
 11021                           6955           4.022 1                          ;
 11023                           6965           4.022 1                          ;
 11024                           7005           4.022 1                          ;
 11029                           6980           4.022 1                          ;
 11030                           6965           4.022 1                          ;
 11031                           6965           4.022 1                          ;
 11032                           6995           4.022 1                          ;
 11033                           6990           4.022 1                          ;
 11034                           6990           4.022 1                          ;
 11035                           6985           4.022 1                          ;
 11037                           6995           4.022 1                          ;
 11038                           7015           4.022 1                          ;
 11039                           7005           4.022 1                          ;
 11043                           7080           4.022 1                          ;
 11046                           7055           4.022 1                          ;
 11047                           7040           4.022 1                          ;
 11049                           6985           4.022 1                          ;
 11052                           7000           4.022 1                          ;
 11055                           7015           4.022 1                          ;
 11057                           7030           4.022 1                          ;
 11060                           7005           4.022 1                          ;
 11062                           7008           4.022 1                          ;
 11063                           7025           4.022 1                          ;
 11064                           7030           4.022 1                          ;
 11065                           7040           4.022 1                          ;
 11067                           7040           4.022 1                          ;