[TITLE]
Test Water Network

[JUNCTIONS]
;ID  Elev    Demand
2    26.43   30
3    -27.29  -21
4    27.52   38
5    4.42    12
6    20.87   22.72
7    0.93    2.78
8    -4.51   -3.25
9    3.14    3.86

[RESERVOIRS]
;ID  Head
1    144.65

[PIPES]
;ID  Node1  Node2  Length  Diam  Roughness
P1   1      2      100     300   100
P2   2      3      100     300   100
P3   1      4      100     300   100
P4   2      5      100     300   100
P5   3      6      100     300   100
P6   4      7      100     300   100
P7   5      8      100     300   100
P8   6      9      100     300   100
P10  4      5      100     300   100
P11  5      6      100     300   100
P12  7      8      100     300   100
P13  8      9      100     300   100

[COORDINATES]
;ID  X-Coord   Y-Coord
1    0         200
2    100       200
3    200       200
4    0         100
5    100       100
6    200       100
7    0         0
8    100       0
9    200       0

[OPTIONS]
Units              LPS
Headloss           H-W

[END]