[TITLE]
UTown City Water Network - Full Optimized Model

[JUNCTIONS]
;ID  Elev    Demand    Description
1    26.65   0.1706    ;
2    26.65   0.0498    ;
3    26.66   0.0876    ;
4    37.81   0.0473    ;
5    41.26   0.1580    ;
6    48.76   0.0255    ;
7    45.14   0.0296    ;
8    46.16   0.1262    ;
9    53.03   0.0351    ;
10   49.54   0.0306    ;
11   47.00   0.0943    ;
12   42.99   0.0347    ;
13   42.27   0.0349    ;
14   42.12   0.0238    ;
15   41.67   0.0454    ;
16   41.13   0.0289    ;
17   40.67   0.0251    ;
18   39.73   0.0101    ;
19   39.46   0.0342    ;
20   39.54   0.0077    ;
21   40.35   0.0371    ;
22   40.54   0.0279    ;
23   40.71   0.0425    ;
24   40.85   0.0240    ;
25   41.15   0.0520    ;
26   41.04   0.0431    ;
27   40.71   0.0504    ;
28   41.48   0.0345    ;
29   41.09   0.0440    ;
30   41.34   0.0382    ;
31   41.66   0.0315    ;
32   40.82   0.0372    ;
33   41.31   0.0465    ;
34   40.18   0.0368    ;
35   39.86   0.0416    ;
36   39.67   0.0524    ;
37   39.53   0.0401    ;
38   39.38   0.0361    ;
39   38.99   0.0311    ;
40   38.41   0.0304    ;
41   37.89   0.0211    ;
42   37.52   0.0211    ;
43   36.85   0.0189    ;
44   36.21   0.0247    ;
45   35.63   0.0321    ;
46   34.82   0.0224    ;
47   33.91   0.0301    ;
48   33.15   0.0311    ;

[RESERVOIRS]
; Гідравлічне джерело (НС)
0    100.00  ; Базовий напір 100 метрів

[PIPES]
;ID      Node1  Node2  Length  Diam   Roughness
; Магістралі від джерела до мережі
P0-1     0      1      100     1000   100
P0-5     0      5      100     1000   100
P0-9     0      9      100     1000   100
; Основна топологія з Таблиці 2
P1-2     1      2      810     1013   100
P2-3     2      3      530     917    100
P3-4     3      4      680     917    100
P4-5     4      5      1600    821    100
P5-6     5      6      1020    700    100
P6-7     6      7      830     700    100
P7-8     7      8      730     400    100
P8-9     8      9      640     700    100
P9-10    9      10     400     200    100
P8-10    8      10     320     300    100
P10-11   10     11     1050    200    100
P12-11   12     11     420     300    100
P13-12   13     12     640     709    100
P14-13   14     13     500     700    100
P15-14   15     14     240     600    100
P13-24   13     24     720     600    100
P14-23   14     23     700     300    100
P16-15   16     15     830     600    100
P5-16    5      16     650     400    100
P17-16   17     16     700     600    100
P4-17    4      17     850     400    100
P18-17   18     17     640     600    100
P3-18    3      18     700     400    100
P19-18   19     18     520     634    100
P1-20    1      20     700     905    100
P20-19   20     19     840     634    100
P20-35   20     35     710     634    100
P35-34   35     34     700     500    100
P19-34   19     34     830     400    100
P34-33   34     33     430     500    100
P18-33   18     33     1060    300    100
P33-32   33     32     440     400    100
P32-31   32     31     280     400    100
P21-31   21     31     650     400    100
P31-29   31     29     510     400    100
P17-21   17     21     670     400    100
P21-22   21     22     400     400    100
P16-22   16     22     800     400    100
P22-30   22     30     240     400    100
P30-29   30     29     410     400    100
P22-23   22     23     430     423    100
P23-24   23     24     550     400    100
P24-28   24     28     500     600    100
P29-28   29     28     500     300    100
P25-24   25     24     460     200    100
P25-26   25     26     440     300    100
P26-27   26     27     330     300    100
P28-27   28     27     750     300    100
P27-42   27     42     330     300    100
P43-42   43     42     630     300    100
P40-43   40     43     840     300    100
P28-41   28     41     400     600    100
P41-40   41     40     200     600    100
P29-40   29     40     380     400    100
P44-43   44     43     780     300    100
P40-39   40     39     870     500    100
P39-44   39     44     480     400    100
P32-38   32     38     980     250    100
P38-39   38     39     580     400    100
P33-37   33     37     820     300    100
P37-38   37     38     550     400    100
P35-36   35     36     470     335    100
P36-37   36     37     1180    300    100
P35-45   35     45     860     500    100
P45-46   45     46     550     516    100
P36-45   36     45     780     200    100
P46-47   46     47     680     500    100
P47-48   47     48     390     500    100
P45-48   45     48     1150    200    100

[COORDINATES]
;ID  X-Coord   Y-Coord
0    5000      9000
1    5000      8000
2    7000      8000
3    8500      8000
4    10000     8000
5    10000     6500
6    10000     4500
7    10000     2500
8    8500      2500
9    7000      2500
10   5000      2500
11   3500      2500
12   2000      2500
13   3500      4500
14   5000      4500
15   7000      4500
16   8500      4500
17   8500      6500
18   7000      6500
19   5000      6500
20   3500      6500
21   3500      8000
22   2000      8000
23   2000      6500
24   2000      4500
25   1000      4500
26   1000      6500
27   1000      8000
28   500       6500
29   500       4500
30   500       2500
31   1000      1500
32   2000      1500
33   3500      1500
34   5000      1500
35   7000      1500
36   8500      1500
37   10000     1500
38   8500      500
39   7000      500
40   5000      500
41   3500      500
42   2000      500
43   1000      500
44   500       500
45   8500      -500
46   7000      -500
47   5000      -500
48   3500      -500

[OPTIONS]
Units              LPS
Headloss           H-W
Quality            None
Viscosity          1.0
Diffusivity        1.0
Specific Gravity   1.0
Trials             40
Accuracy           0.001
[END]